276
 generated by VMD
 C1        0.129000       10.582000        6.403000
 C1        8.622000        2.090000       14.896000
 C1       16.857000        6.403000        6.403000
 C1        8.364000       14.896000       14.896000
 C1       10.582000        0.129000        6.403000
 C1        2.090000        8.622000       14.896000
 C1        6.403000       16.857000        6.403000
 C1       14.896000        8.364000       14.896000
 C1        0.129000        6.403000       10.582000
 C1        8.622000       14.896000        2.090000
 C1       16.857000       10.582000       10.582000
 C1        8.364000        2.090000        2.090000
 C1       10.582000       16.857000       10.582000
 C1        2.090000        8.364000        2.090000
 C1        6.403000        0.129000       10.582000
 C1       14.896000        8.622000        2.090000
 C1        6.403000       10.582000        0.129000
 C1       14.896000        2.090000        8.622000
 C1       10.582000        6.403000        0.129000
 C1        2.090000       14.896000        8.622000
 C1        6.403000        6.403000       16.857000
 C1       14.896000       14.896000        8.364000
 C1       10.582000       10.582000       16.857000
 C1        2.090000        2.090000        8.364000
 C2       15.260000       11.663000        6.269000
 C2        6.767000        3.171000       14.762000
 C2        1.726000        5.322000        6.269000
 C2       10.218000       13.815000       14.762000
 C2       11.664000       15.260000        6.269000
 C2        3.171000        6.767000       14.762000
 C2        5.322000        1.726000        6.269000
 C2       13.815000       10.218000       14.762000
 C2       15.260000        5.322000       10.717000
 C2        6.767000       13.815000        2.224000
 C2        1.726000       11.663000       10.717000
 C2       10.218000        3.171000        2.224000
 C2       11.664000        1.726000       10.717000
 C2        3.171000       10.218000        2.224000
 C2        5.322000       15.260000       10.717000
 C2       13.815000        6.767000        2.224000
 C2        6.269000       11.663000       15.260000
 C2       14.762000        3.171000        6.767000
 C2       10.717000        5.322000       15.260000
 C2        2.224000       13.815000        6.767000
 C2       11.664000        6.269000       15.260000
 C2        3.171000       14.762000        6.767000
 C2        5.322000       10.717000       15.260000
 C2       13.815000        2.224000        6.767000
 C2        6.269000        5.322000        1.726000
 C2       14.762000       13.815000       10.218000
 C2       10.717000       11.664000        1.726000
 C2        2.224000        3.171000       10.218000
 C2       11.664000       10.717000        1.726000
 C2        3.171000        2.224000       10.218000
 C2        5.322000        6.269000        1.726000
 C2       13.815000       14.762000       10.218000
 C2        6.269000       15.260000       11.664000
 C2       14.762000        6.767000        3.171000
 C2       10.717000        1.726000       11.664000
 C2        2.224000       10.218000        3.171000
 C2       15.260000        6.269000       11.664000
 C2        6.767000       14.762000        3.171000
 C2        1.726000       10.717000       11.664000
 C2       10.218000        2.224000        3.171000
 C2        6.269000        1.726000        5.322000
 C2       14.762000       10.218000       13.815000
 C2       10.717000       15.260000        5.322000
 C2        2.224000        6.767000       13.815000
 C2       15.260000       10.717000        5.322000
 C2        6.767000        2.224000       13.815000
 C2        1.726000        6.269000        5.322000
 C2       10.218000       14.762000       13.815000
 C3        1.456000       10.101000        6.884000
 C3        9.948000        1.609000       15.377000
 C3       15.530000        6.884000        6.884000
 C3        7.037000       15.377000       15.377000
 C3       10.101000        1.456000        6.884000
 C3        1.609000        9.948000       15.377000
 C3        6.884000       15.530000        6.884000
 C3       15.377000        7.037000       15.377000
 C3        1.456000        6.884000       10.101000
 C3        9.948000       15.377000        1.609000
 C3       15.530000       10.101000       10.101000
 C3        7.037000        1.609000        1.609000
 C3       10.101000       15.530000       10.101000
 C3        1.609000        7.037000        1.609000
 C3        6.884000        1.456000       10.101000
 C3       15.377000        9.948000        1.609000
 C3        6.884000       10.101000        1.456000
 C3       15.377000        1.609000        9.948000
 C3       10.101000        6.884000        1.456000
 C3        1.609000       15.377000        9.948000
 C3        6.884000        6.884000       15.530000
 C3       15.377000       15.377000        7.037000
 C3       10.101000       10.101000       15.530000
 C3         1.609000        1.609000        7.037000
 H2       14.572000       12.267000        6.429000
 H2        6.079000        3.774000       14.922000
 H2        2.414000        4.719000        6.429000
 H2       10.906000       13.211000       14.922000
 H2       12.267000       14.572000        6.429000
 H2        3.774000        6.079000       14.922000
 H2        4.719000        2.414000        6.429000
 H2       13.211000       10.906000       14.922000
 H2       14.572000        4.719000       10.557000
 H2        6.079000       13.211000        2.064000
 H2        2.414000       12.267000       10.557000
 H2       10.906000        3.774000        2.064000
 H2       12.267000        2.414000       10.557000
 H2        3.774000       10.906000        2.064000
 H2        4.719000       14.572000       10.557000
 H2       13.211000        6.079000        2.064000
 H2        6.429000       12.267000       14.572000
 H2       14.922000        3.774000        6.079000
 H2       10.557000        4.719000       14.572000
 H2        2.064000       13.211000        6.079000
 H2       12.267000        6.429000       14.572000
 H2        3.774000       14.922000        6.079000
 H2        4.719000       10.557000       14.572000
 H2       13.211000        2.064000        6.079000
 H2        6.429000        4.719000        2.414000
 H2       14.922000       13.211000       10.906000
 H2       10.557000       12.267000        2.414000
 H2        2.064000        3.774000       10.906000
 H2       12.267000       10.557000        2.414000
 H2        3.774000        2.064000       10.906000
 H2        4.719000        6.429000        2.414000
 H2       13.211000       14.922000       10.906000
 H2        6.429000       14.572000       12.267000
 H2       14.922000        6.079000        3.774000
 H2       10.557000        2.414000       12.267000
 H2        2.064000       10.906000        3.774000
 H2       14.572000        6.429000       12.267000
 H2        6.079000       14.922000        3.774000
 H2        2.414000       10.557000       12.267000
 H2       10.906000        2.064000        3.774000
 H2        6.429000        2.414000        4.719000
 H2       14.922000       10.906000       13.211000
 H2       10.557000       14.572000        4.719000
 H2        2.064000        6.079000       13.211000
 H2       14.572000       10.557000        4.719000
 H2        6.079000        2.064000       13.211000
 H2        2.414000        6.429000        4.719000
 H2       10.906000       14.922000       13.211000
 H3        1.948000        9.721000        6.162000
 H3       10.441000        1.228000       14.655000
 H3       15.037000        7.265000        6.162000
 H3        6.545000       15.758000       14.655000
 H3        9.721000        1.948000        6.162000
 H3        1.228000       10.441000       14.655000
 H3        7.265000       15.037000        6.162000
 H3       15.758000        6.545000       14.655000
 H3        1.948000        7.265000       10.823000
 H3       10.441000       15.758000        2.330000
 H3       15.037000        9.721000       10.823000
 H3        6.545000        1.228000        2.330000
 H3        9.721000       15.037000       10.823000
 H3        1.228000        6.545000        2.330000
 H3        7.265000        1.948000       10.823000
 H3       15.758000       10.441000        2.330000
 H3        6.162000        9.721000        1.948000
 H3       14.655000        1.228000       10.441000
 H3       10.823000        7.265000        1.948000
 H3        2.330000       15.758000       10.441000
 H3        9.721000        6.162000        1.948000
 H3        1.228000       14.655000       10.441000
 H3        7.265000       10.823000        1.948000
 H3       15.758000        2.330000       10.441000
 H3        6.162000        7.265000       15.037000
 H3       14.655000       15.758000        6.545000
 H3       10.823000        9.721000       15.037000
 H3        2.330000        1.228000        6.545000
 H3        9.721000       10.823000       15.037000
 H3        1.228000        2.330000        6.545000
 H3        7.265000        6.162000       15.037000
 H3       15.758000       14.655000        6.545000
 H3        6.162000        1.948000        9.721000
 H3       14.655000       10.441000        1.228000
 H3       10.823000       15.037000        9.721000
 H3        2.330000        6.545000        1.228000
 H3        1.948000        6.162000        9.721000
 H3       10.441000       14.655000        1.228000
 H3       15.037000       10.823000        9.721000
 H3        6.545000        2.330000        1.228000
 H3        6.162000       15.037000        7.265000
 H3       14.655000        6.545000       15.758000
 H3       10.823000        1.948000        7.265000
 H3        2.330000       10.441000       15.758000
 H3        1.948000       10.823000        7.265000
 H3       10.441000        2.330000       15.758000
 H3       15.037000        6.162000        7.265000
 H3        6.545000       14.655000       15.758000
 H4        1.323000        9.432000        7.553000
 H4        9.816000        0.939000       16.046000
 H4       15.662000        7.553000        7.553000
 H4        7.170000       16.046000       16.046000
 H4        9.432000        1.323000        7.553000
 H4        0.939000        9.816000       16.046000
 H4        7.553000       15.662000        7.553000
 H4       16.046000        7.170000       16.046000
 H4        1.323000        7.553000        9.432000
 H4        9.816000       16.046000        0.939000
 H4       15.662000        9.432000        9.432000
 H4        7.170000        0.939000        0.939000
 H4        9.432000       15.662000        9.432000
 H4        0.939000        7.170000        0.939000
 H4        7.553000        1.323000        9.432000
 H4       16.046000        9.816000        0.939000
 H4        7.553000        9.432000        1.323000
 H4       16.046000        0.939000        9.816000
 H4        9.432000        7.553000        1.323000
 H4        0.939000       16.046000        9.816000
 H4        7.553000        7.553000       15.662000
 H4       16.046000       16.046000        7.170000
 H4        9.432000        9.432000       15.662000
 H4        0.939000        0.939000        7.170000
 N        16.441999       11.596000        6.964000
 N         7.949000        3.104000       15.457000
 N         0.544000        5.389000        6.964000
 N         9.037000       13.882000       15.457000
 N        11.596000       16.441999        6.964000
 N         3.104000        7.949000       15.457000
 N         5.389000        0.544000        6.964000
 N        13.882000        9.037000       15.457000
 N        16.441999        5.389000       10.022000
 N         7.949000       13.882000        1.529000
 N         0.544000       11.596000       10.022000
 N         9.037000        3.104000        1.529000
 N        11.596000        0.544000       10.022000
 N         3.104000        9.037000        1.529000
 N         5.389000       16.441999       10.022000
 N        13.882000        7.949000        1.529000
 N         6.964000       11.596000       16.441999
 N        15.457000        3.104000        7.949000
 N        10.022000        5.389000       16.441999
 N         1.529000       13.882000        7.949000
 N        11.596000        6.964000       16.441999
 N         3.104000       15.457000        7.949000
 N         5.389000       10.022000       16.441999
 N        13.882000        1.529000        7.949000
 N         6.964000        5.389000        0.544000
 N        15.457000       13.882000        9.037000
 N        10.022000       11.596000        0.544000
 N         1.529000        3.104000        9.037000
 N        11.596000       10.022000        0.544000
 N         3.104000        1.529000        9.037000
 N         5.389000        6.964000        0.544000
 N        13.882000       15.457000        9.037000
 N         6.964000       16.441999       11.596000
 N        15.457000        7.949000        3.104000
 N        10.022000        0.544000       11.596000
 N         1.529000        9.037000        3.104000
 N        16.441999        6.964000       11.596000
 N         7.949000       15.457000        3.104000
 N         0.544000       10.022000       11.596000
 N         9.037000        1.529000        3.104000
 N         6.964000        0.544000        5.389000
 N        15.457000        9.037000       13.882000
 N        10.022000       16.441999        5.389000
 N         1.529000        7.949000       13.882000
 N        16.441999       10.022000        5.389000
 N         7.949000        1.529000       13.882000
 N         0.544000        6.964000        5.389000
 N         9.037000       15.457000       13.882000
Zn         0.000000       12.739000        8.493000
Zn         8.493000        4.246000        0.000000
Zn         0.000000        4.246000        8.493000
Zn         8.493000       12.739000        0.000000
Zn        12.739000        0.000000        8.493000
Zn         4.246000        8.493000        0.000000
Zn         4.246000        0.000000        8.493000
Zn        12.739000        8.493000        0.000000
Zn         8.493000        0.000000       12.739000
Zn         0.000000        8.493000        4.246000
Zn         0.000000        8.493000       12.739000
Zn         8.493000        0.000000        4.246000
